Code/RG_UCTE.m
function mpc = RG_UCTE

% -------------------------------------------------------------------------------------------------------
% Nordic equivalent - RG_UCTE: DK1 & DE (Matpower)
% -------------------------------------------------------------------------------------------------------

%% MATPOWER Case Format : Version 2
mpc.version = '2';

%%-----  Power Flow Data  -----%%
%% system MVA base
mpc.baseMVA = 100;

%% bus data
%bus_i type	Pd	   Qd  Gs  Bs area	Vm	Va	baseKV	zone	Vmax	Vmin
mpc.bus = [
    1	1	0	0	0	0	1	1.0203	-6.6127	400	1	1.05	0	;
    2	1	0	0	0	0	1	1.04269	1.4187	400	1	1.05	0	;
    3	1	0	0	0	0	1	1.01092	-5.5427	400	1	1.05	0	;
    4	1	0	0	0	0	1	1.01937	-5.065	400	1	1.05	0	;
    5	1	0	0	0	0	1	1.02778	-3.5067	400	1	1.05	0.9	;
    6	1	0	0	0	0	1	1.02943	-3.3581	400	1	1.05	0	;
    7	1	0	0	0	0	1	1.02043	-6.2558	400	1	1.04	1.01	;
    8	1	0	0	0	0	1	1.0383	0.5739	400	1	1.04	1.01	;
    9	1	0	0	0	0	1	1.01092	-5.5427	400	1	1.04	1.01	;
    10	1	0	0	0	0	1	1.01183	-5.4309	400	1	1.05	0.9	;
    11	1	0	0	0	0	1	1.03031	-1.9192	400	1	1.05	0.9	;
    12	1	0	0	0	0	1	1.01352	-6.0674	400	1	1.05	0.9	;
    13	1	0	0	0	0	1	1.014	-5.4208	400	1	1.05	0.9	;
    14	1	0	0	0	0	1	1.0144	-5.1855	400	1	1.05	0.9	;
    15	1	0	0	0	0	1	1.01633	-3.36	400	1	1.05	0.9	;
    16	1	0	0	0	0	1	1.02012	-2.4108	400	1	1.05	0.9	;
    17	1	0	0	0	0	1	1.04042	1.2268	400	1	1.05	0.9	;
    18	1	0	0	0	0	1	1.01937	-5.065	400	1	1.05	0	;
    19	1	0	0	0	0	1	1.01321	-5.157	400	1	1.05	0.9	;
    20	1	0	0	0	0	1	1.03852	-1.1965	400	1	1.04	1.01	;
    21	1	0	0	0	0	1	1.02001	-2.4103	400	1	1.05	0.9	;
    22	1	0	0	0	0	1	1.04126	1.263	400	1	1.04	1.01	;
    23	1	0	0	0	0	1	1.06559	-1.4138	232	1	1.02	0.98	;
    24	1	0	0	0	0	1	1.03659	-4.9857	232	1	1.03	0.97	;
    25	1	0	0	0	0	1	1.06508	-4.1419	232	1	1.05	0	;
    26	1	0	0	0	0	1	1.03103	-1.9853	232	1	1.05	0	;
    27	1	0	0	0	0	1	1.05294	1.9169	165	1	1.05	0	;
    28	1	0	0	0	0	1	1.00221	-7.7391	165	1	1.05	0	;
    29	1	0	0	0	0	1	1.00534	-7.7161	165	1	1.05	0	;
    30	1	0	0	0	0	1	1.03273	-1.4621	165	1	1.03	0.88	;
    31	1	0	0	0	0	1	1.01244	-7.2767	165	1	1.03	0.88	;
    32	1	0	0	0	0	1	1.03672	-5.5605	165	1	1.03	0.88	;
    33	1	0	0	0	0	1	1.0025	-5.9823	165	1	1.01	0.97	;
    34	1	0	0	0	0	1	1.03411	-1.2707	165	1	1.03	0.88	;
    35	1	0	0	0	0	1	1.00786	-7.3117	165	1	1.03	0.88	;
    36	1	0	0	0	0	1	1.0349	-3.7375	165	1	1.03	0.88	;
    37	1	0	0	0	0	1	1.02867	-3.6248	165	1	1.05	0	;
    38	1	0	0	0	0	1	1.02867	-3.6248	165	1	1.05	0	;
    39	1	0	0	0	0	1	1.02217	-3.8794	165	1	1.01	0.97	;
    40	1	0	0	0	0	1	1.03952	-1.4524	165	1	1.03	0.88	;
    41	1	0	0	0	0	1	1.00767	-5.5519	165	1	1.03	0.88	;
    42	1	0	0	0	0	1	1.05929	-5.8538	165	1	1.01	0.97	;
    43	1	0	0	0	0	1	1.00807	-4.2065	165	1	1.03	0.88	;
    44	1	0	0	0	0	1	1.03096	-1.4801	165	1	1.01	0.97	;
    45	1	0	0	0	0	1	1.00326	-6.9223	165	1	1.03	0.88	;
    46	1	0	0	0	0	1	1.03548	-1.9705	165	1	1.03	0.88	;
    47	1	0	0	0	0	1	1.03758	-3.163	165	1	1.01	0.98	;
    48	1	0	0	0	0	1	1.03758	-3.163	165	1	1.05	0	;
    49	1	0	0	0	0	1	1.00436	-7.2518	165	1	1.03	0.88	;
    50	1	0	0	0	0	1	1.01139	-7.1859	165	1	1.03	0.88	;
    51	1	0	0	0	0	1	1.00876	-4.86	165	1	1.01	0.97	;
    52	1	0	0	0	0	1	1.00778	-6.9346	165	1	1.03	0.88	;
    53	1	0	0	0	0	1	1.03696	-5.234	165	1	1.03	0.88	;
    54	1	0	0	0	0	1	1.02183	-3.5395	165	1	1.03	0.88	;
    55	1	0	0	0	0	1	1.01102	-5.9874	165	1	1.03	0.88	;
    56	1	0	0	0	0	1	1.02568	-4.2705	165	1	1.03	0.88	;
    57	1	0	0	0	0	1	1.08914	-5.8379	165	1	1.02	0.98	;
    58	1	0	0	0	0	1	1.00844	-4.9589	165	1	1.01	0.97	;
    59	1	0	0	0	0	1	1.03594	-1.3919	165	1	1.03	0.88	;
    60	1	0	0	0	0	1	1.03287	-1.4998	165	1	1.05	0	;
    61	1	0	0	0	0	1	1.00991	-4.86	165	1	1.03	0.88	;
    62	1	0	0	0	0	1	1.0299	-3.6371	165	1	1.03	0.88	;
    63	1	0	0	0	0	1	1.02055	-4.4694	165	1	1.03	0.88	;
    64	1	0	0	0	0	1	1.02776	-2.9534	165	1	1.03	0.88	;
    65	1	0	0	0	0	1	1.00181	-6.7422	165	1	1.03	0.88	;
    66	1	0	0	0	0	1	1.02868	-3.0083	165	1	1.03	0.88	;
    67	1	0	0	0	0	1	1.01079	-7.0939	165	1	1.03	0.88	;
    68	1	0	0	0	0	1	1.03509	-2.7673	165	1	1.03	0.88	;
    69	1	0	0	0	0	1	1.03509	-2.755	165	1	1.03	0.88	;
    70	1	0	0	0	0	1	1.01446	-7.0346	165	1	1.03	0.88	;
    71	1	0	0	0	0	1	1.01049	-7.0432	165	1	1.01	0.97	;
    72	1	0	0	0	0	1	1.00985	-4.7201	165	1	1.05	0	;
    73	1	0	0	0	0	1	1.02564	-4.1921	165	1	1.01	0.97	;
    74	1	0	0	0	0	1	1.02643	-3.164	165	1	1.01	0.97	;
    75	1	0	0	0	0	1	1.0084	-4.1682	165	1	1.03	0.88	;
    76	1	0	0	0	0	1	1.00881	-7.3493	165	1	1.03	0.88	;
    77	1	0	0	0	0	1	1.01026	-4.9742	165	1	1.03	0.88	;
    78	1	0	0	0	0	1	1.0111	-4.2915	165	1	1.03	0.88	;
    79	1	0	0	0	0	1	1.00733	-2.917	165	1	1.03	0.88	;
    80	1	0	0	0	0	1	1.00961	-4.6505	165	1	1.03	0.88	;
    81	1	0	0	0	0	1	1.01024	-4.2198	165	1	1.03	0.88	;
    82	1	0	0	0	0	1	1.03438	-2.2237	165	1	1.03	0.88	;
    83	1	0	0	0	0	1	1.03931	-3.4489	165	1	1.03	0.88	;
    84	1	0	0	0	0	1	1.035	-1.3839	165	1	1.01	0.97	;
    85	1	0	0	0	0	1	1.03309	-0.8813	165	1	1.03	0.88	;
    86	1	0	0	0	0	1	1.00437	-7.197	165	1	1.03	0.88	;
    87	1	0	0	0	0	1	1.00241	-7.6719	165	1	1.05	0	;
    88	1	0	0	0	0	1	1.03644	-3.7734	165	1	1.03	0.88	;
    89	1	0	0	0	0	1	1.00669	-5.2071	165	1	1.03	0.88	;
    90	1	0	0	0	0	1	1.0301	-3.8144	165	1	1.01	0.97	;
    91	1	0	0	0	0	1	1.01036	-7.2886	165	1	1.03	0.88	;
    92	1	0	0	0	0	1	1.0409	-1.6229	165	1	1.03	0.88	;
    93	1	0	0	0	0	1	1.03182	-5.0088	165	1	1.03	0.88	;
    94	1	0	0	0	0	1	1.00256	-7.3304	165	1	1.03	0.88	;
    95	1	0	0	0	0	1	1.03173	-3.8663	165	1	1.01	0.97	;
    96	1	0	0	0	0	1	1.03593	-1.4308	165	1	1.03	0.88	;
    97	1	0	0	0	0	1	1.0328	-3.8485	165	1	1.03	0.88	;
    98	1	0	0	0	0	1	1.02676	-4.374	165	1	1.03	0.88	;
    99	1	0	0	0	0	1	1.00398	-7.8694	165	1	1.03	0.88	;
    100	1	0	0	0	0	1	1.0107	-7.1481	165	1	1.03	0.88	;
    101	1	0	0	0	0	1	1.00987	-7.6226	165	1	1.03	0.88	;
    102	1	0	0	0	0	1	1.02547	-3.4596	165	1	1.03	0.88	;
    103	1	0	0	0	0	1	1.03494	-5.7396	165	1	1.03	0.88	;
    104	1	0	0	0	0	1	1.02812	-2.8578	165	1	1.03	0.88	;
    105	1	0	0	0	0	1	1.02607	-2.8426	165	1	1.05	0	;
    106	1	0	0	0	0	1	1.05193	1.8335	165	1	1.01	0.97	;
    107	1	0	0	0	0	1	1.01205	-3.89	165	1	1.01	0.97	;
    108	1	0	0	0	0	1	1.03207	-0.7382	165	1	1.05	0	;
    109	1	0	0	0	0	1	1.02549	-4.1677	165	1	1.03	0.88	;
    110	1	0	0	0	0	1	1.03677	-2.7006	165	1	1.03	0.88	;
    111	1	0	0	0	0	1	1.00616	-3.5996	165	1	1.03	0.88	;
    112	1	0	0	0	0	1	1.03217	-0.9334	165	1	1.03	0.88	;
    113	1	0	0	0	0	1	1.01052	-4.1669	165	1	1.03	0.88	;
    114	2	0	0	0	0	1	1.02	-4.0368	21	1	1.03	1.02	;
    115	2	0	0	0	0	1	1.02	7.0905	21	1	1.03	1.02	;
    116	1	0	0	0	0	1	1.03309	-0.8813	21	1	1.03	1.02	;
    117	1	0	0	0	0	1	1.00256	-7.3304	21	1	1.03	1.02	;
    118	2	0	0	0	0	1	0.98952	-4.6774	21	1	1.03	1.02	;
    119	2	0	0	0	0	1	0.98836	1.5704	19	1	1.03	1.02	;
    120	1	0	0	0	0	1	1.02012	-2.4108	19	1	1.03	1.02	;
    121	3	0	0	0	0	1	0.99	0	19	1	1.03	1.02	;
    122	2	0	0	0	0	1	1	-5.5302	15.8	1	1.05	0	;
    123	1	0	0	0	0	1	1.00611	-5.4756	15	1	1.03	1.02	;
    124	2	0	0	0	0	1	1.01523	1.9279	13	1	1.03	1.02	;
    125	2	0	0	0	0	1	1	-0.7026	12	1	1.03	1.02	;
    126	2	0	0	0	0	1	1.02	-4.3846	11.5	1	1.03	1.02	;
    127	2	0	0	0	0	1	1.02	-4.0028	10.5	1	1.03	1.02	;
    128	1	0	0	0	0	1	1.01294	-5.5421	10	1	1.05	0	;
    129	1	0	0	0	0	1	0.97457	-0.5702	10	1	1.03	1.02	;
    130	1	0	0	0	0	1	1	0	1	1	1.05	0.95	;
    131	1	0	0	0	0	1	1	0	1	1	1.05	0.95	;
    132	1	0	0	0	0	1	1	0	1	1	1.05	0.95	;
    133	1	0	0	0	0	2	1.01366	-6.2033	400	1	1.05	0	;
    134	1	0	0	0	0	2	0.9895	-8.7113	165	1	1.03	0.88	;
];

%% generator data
%	bus	Pg	Qg	Qmax	Qmin	Vg	mBase	status	Pmax	Pmin	Pc1	Pc2	Qc1min	Qc1max	Qc2min	Qc2max	ramp_agc	ramp_10	ramp_30	ramp_q	apf
mpc.gen = [
    28	0	0	57.41	-57.41	1	100	1	41.34	0.00	0	0	0	0	0	0	0	0	0	0	0	;
    30	0	0	8.68	-8.68	1	100	1	6.25	0.00	0	0	0	0	0	0	0	0	0	0	0	;
    31	0	0	3.35	-3.35	1	100	1	2.41	0.00	0	0	0	0	0	0	0	0	0	0	0	;
    33	0	0	57.89	-57.89	1	100	1	41.69	0.00	0	0	0	0	0	0	0	0	0	0	0	;
    34	0	0	104.77	-104.77	1	100	1	75.44	0.00	0	0	0	0	0	0	0	0	0	0	0	;
    35	0	0	13.38	-13.38	1	100	1	9.64	0.00	0	0	0	0	0	0	0	0	0	0	0	;
    36	0	0	24.63	-24.63	1	100	1	17.73	0.00	0	0	0	0	0	0	0	0	0	0	0	;
    37	0	0	52.37	-52.37	1	100	1	37.71	0.00	0	0	0	0	0	0	0	0	0	0	0	;
    39	0	0	168.08	-168.08	1	100	1	121.03	0.00	0	0	0	0	0	0	0	0	0	0	0	;
    40	0	0	17.57	-17.57	1	100	1	12.65	0.00	0	0	0	0	0	0	0	0	0	0	0	;
    43	0	0	28.76	-28.76	1	100	1	20.71	0.00	0	0	0	0	0	0	0	0	0	0	0	;
    44	0	0	10.32	-10.32	1	100	1	7.43	0.00	0	0	0	0	0	0	0	0	0	0	0	;
    45	0	0	81.68	-81.68	1	100	1	58.82	0.00	0	0	0	0	0	0	0	0	0	0	0	;
    45	0	0	19.48	-19.48	1	100	1	17.53	0.00	0	0	0	0	0	0	0	0	0	0	0	;
    46	0	0	12.79	-12.79	1	100	1	9.21	0.00	0	0	0	0	0	0	0	0	0	0	0	;
    49	0	0	28.68	-28.68	1	100	1	25.81	0.00	0	0	0	0	0	0	0	0	0	0	0	;
    49	0	0	25.31	-25.31	1	100	1	18.22	0.00	0	0	0	0	0	0	0	0	0	0	0	;
    50	0	0	25.49	-25.49	1	100	1	18.36	0.00	0	0	0	0	0	0	0	0	0	0	0	;
    51	0	0	13.46	-13.46	1	100	1	9.70	0.00	0	0	0	0	0	0	0	0	0	0	0	;
    52	0	0	58.99	-58.99	1	100	1	42.48	0.00	0	0	0	0	0	0	0	0	0	0	0	;
    53	0	0	57.52	-57.52	1	100	1	41.42	0.00	0	0	0	0	0	0	0	0	0	0	0	;
    54	0	0	10.75	-10.75	1	100	1	7.74	0.00	0	0	0	0	0	0	0	0	0	0	0	;
    55	0	0	40.76	-40.76	1	100	1	29.35	0.00	0	0	0	0	0	0	0	0	0	0	0	;
    58	0	0	1.70	-1.70	1	100	1	1.22	0.00	0	0	0	0	0	0	0	0	0	0	0	;
    59	0	0	4.40	-4.40	1	100	1	3.17	0.00	0	0	0	0	0	0	0	0	0	0	0	;
    60	0	0	1.69	-1.69	1	100	1	1.22	0.00	0	0	0	0	0	0	0	0	0	0	0	;
    61	0	0	5.88	-5.88	1	100	1	4.23	0.00	0	0	0	0	0	0	0	0	0	0	0	;
    62	0	0	33.46	-33.46	1	100	1	30.12	0.00	0	0	0	0	0	0	0	0	0	0	0	;
    62	0	0	9.09	-9.09	1	100	1	6.54	0.00	0	0	0	0	0	0	0	0	0	0	0	;
    63	0	0	41.83	-41.83	1	100	1	30.12	0.00	0	0	0	0	0	0	0	0	0	0	0	;
    63	0	0	1.78	-1.78	1	100	1	1.28	0.00	0	0	0	0	0	0	0	0	0	0	0	;
    66	0	0	36.08	-36.08	1	100	1	25.98	0.00	0	0	0	0	0	0	0	0	0	0	0	;
    70	0	0	17.88	-17.88	1	100	1	12.88	0.00	0	0	0	0	0	0	0	0	0	0	0	;
    73	0	0	26.53	-26.53	1	100	1	19.11	0.00	0	0	0	0	0	0	0	0	0	0	0	;
    74	0	0	74.23	-74.23	1	100	1	53.45	0.00	0	0	0	0	0	0	0	0	0	0	0	;
    75	0	0	22.21	-22.21	1	100	1	19.99	0.00	0	0	0	0	0	0	0	0	0	0	0	;
    75	0	0	19.06	-19.06	1	100	1	13.72	0.00	0	0	0	0	0	0	0	0	0	0	0	;
    76	0	0	46.84	-46.84	1	100	1	33.73	0.00	0	0	0	0	0	0	0	0	0	0	0	;
    77	0	0	5.97	-5.97	1	100	1	4.30	0.00	0	0	0	0	0	0	0	0	0	0	0	;
    78	0	0	7.34	-7.34	1	100	1	5.29	0.00	0	0	0	0	0	0	0	0	0	0	0	;
    79	0	0	15.55	-15.55	1	100	1	11.20	0.00	0	0	0	0	0	0	0	0	0	0	0	;
    80	0	0	23.06	-23.06	1	100	1	20.76	0.00	0	0	0	0	0	0	0	0	0	0	0	;
    80	0	0	5.67	-5.67	1	100	1	4.09	0.00	0	0	0	0	0	0	0	0	0	0	0	;
    81	0	0	67.80	-67.80	1	100	1	48.82	0.00	0	0	0	0	0	0	0	0	0	0	0	;
    82	0	0	21.09	-21.09	1	100	1	15.19	0.00	0	0	0	0	0	0	0	0	0	0	0	;
    83	0	0	23.33	-23.33	1	100	1	16.80	0.00	0	0	0	0	0	0	0	0	0	0	0	;
    84	0	0	54.51	-54.51	1	100	1	39.25	0.00	0	0	0	0	0	0	0	0	0	0	0	;
    85	0	0	27.77	-27.77	1	100	1	20.00	0.00	0	0	0	0	0	0	0	0	0	0	0	;
    88	0	0	1.81	-1.81	1	100	1	1.30	0.00	0	0	0	0	0	0	0	0	0	0	0	;
    89	0	0	21.43	-21.43	1	100	1	15.43	0.00	0	0	0	0	0	0	0	0	0	0	0	;
    91	0	0	37.13	-37.13	1	100	1	26.74	0.00	0	0	0	0	0	0	0	0	0	0	0	;
    92	0	0	52.62	-52.62	1	100	1	37.89	0.00	0	0	0	0	0	0	0	0	0	0	0	;
    94	0	0	55.96	-55.96	1	100	1	40.30	0.00	0	0	0	0	0	0	0	0	0	0	0	;
    97	0	0	37.11	-37.11	1	100	1	26.72	0.00	0	0	0	0	0	0	0	0	0	0	0	;
    98	0	0	23.02	-23.02	1	100	1	16.58	0.00	0	0	0	0	0	0	0	0	0	0	0	;
    99	0	0	32.69	-32.69	1	100	1	23.54	0.00	0	0	0	0	0	0	0	0	0	0	0	;
    100	0	0	2.22	-2.22	1	100	1	1.60	0.00	0	0	0	0	0	0	0	0	0	0	0	;
    101	0	0	98.55	-98.55	1	100	1	70.96	0.00	0	0	0	0	0	0	0	0	0	0	0	;
    102	0	0	23.51	-23.51	1	100	1	16.93	0.00	0	0	0	0	0	0	0	0	0	0	0	;
    102	0	0	5.84	-5.84	1	100	1	4.21	0.00	0	0	0	0	0	0	0	0	0	0	0	;
    103	0	0	18.29	-18.29	1	100	1	13.17	0.00	0	0	0	0	0	0	0	0	0	0	0	;
    104	0	0	17.47	-17.47	1	100	1	12.58	0.00	0	0	0	0	0	0	0	0	0	0	0	;
    108	0	0	18.32	-18.32	1	100	1	13.19	0.00	0	0	0	0	0	0	0	0	0	0	0	;
    109	0	0	27.30	-27.30	1	100	1	19.66	0.00	0	0	0	0	0	0	0	0	0	0	0	;
    110	0	0	21.39	-21.39	1	100	1	15.40	0.00	0	0	0	0	0	0	0	0	0	0	0	;
    112	0	0	29.76	-29.76	1	100	1	26.78	0.00	0	0	0	0	0	0	0	0	0	0	0	;
    113	0	0	46.66	-46.66	1	100	1	33.60	0.00	0	0	0	0	0	0	0	0	0	0	0	;
    114	0	0	90.36	-46.99	1	100	1	150.00	59.00	0	0	0	0	0	0	0	0	0	0	0	;
    115	0	0	290.00	-135.00	1	100	1	440.00	82.00	0	0	0	0	0	0	0	0	0	0	0	;
    118	0	0	322.51	-107.50	1	100	1	370.00	59.00	0	0	0	0	0	0	0	0	0	0	0	;
    118	0	0	45.00	-15.00	1	100	1	60.00	0.00	0	0	0	0	0	0	0	0	0	0	0	;
    119	0	0	239.29	-72.83	1	100	1	390.00	35.00	0	0	0	0	0	0	0	0	0	0	0	;
    121	0	0	245.00	-155.00	1	100	1	402.00	70.00	0	0	0	0	0	0	0	0	0	0	0	;
    122	0	0	200.00	-100.00	1	100	1	0.00	0.00	0	0	0	0	0	0	0	0	0	0	0	;
    124	0	0	160.00	-120.00	1	100	1	0.00	0.00	0	0	0	0	0	0	0	0	0	0	0	;
    125	0	0	105.00	-50.00	1	100	1	0.00	0.00	0	0	0	0	0	0	0	0	0	0	0	;
    126	0	0	44.67	-11.17	1	100	1	89.00	18.00	0	0	0	0	0	0	0	0	0	0	0	;
    127	0	0	36.40	-18.70	1	100	1	35.00	0.00	0	0	0	0	0	0	0	0	0	0	0	;
];

%% wind farm and PV park data
% bus	p_max	base_kv
mpc.wind = [
    23	 413.0 	232	;
    25	 165.2 	132	;
    28	 29.5 	165	;
    30	 0.3 	165	;
    31	 9.1 	165	;
    33	 102.3 	165	;
    34	 50.9 	165	;
    35	 27.7 	165	;
    36	 132.5 	165	;
    37	 126.9 	165	;
    39	 23.2 	165	;
    40	 29.5 	165	;
    44	 17.8 	165	;
    45	 30.1 	165	;
    45	 17.3 	165	;
    46	 25.9 	165	;
    47	 9.2 	165	;
    49	 28.6 	165	;
    50	 28.5 	165	;
    51	 8.3 	165	;
    52	 20.2 	165	;
    53	 105.3 	165	;
    54	 36.7 	165	;
    55	 46.5 	165	;
    56	 132.2 	165	;
    57	 172.8 	165	;
    59	 46.8 	165	;
    61	 7.6 	165	;
    62	 93.7 	165	;
    63	 70.7 	165	;
    66	 69.1 	165	;
    68	 63.3 	165	;
    70	 24.9 	165	;
    73	 156.2 	165	;
    73	 103.2 	165	;
    74	 13.4 	165	;
    75	 35.6 	165	;
    76	 34.8 	165	;
    77	 10.0 	165	;
    77	 23.1 	165	;
    78	 51.1 	165	;
    80	 16.5 	165	;
    81	 25.9 	165	;
    82	 37.5 	165	;
    83	 46.1 	165	;
    84	 56.4 	165	;
    85	 9.9 	165	;
    88	 100.2 	165	;
    88	 14.2 	165	;
    89	 28.5 	165	;
    91	 2.1 	165	;
    92	 12.9 	165	;
    92	 8.8 	165	;
    93	 1.9 	165	;
    94	 105.9 	165	;
    97	 28.8 	165	;
    98	 114.3 	165	;
    99	 70.3 	165	;
    101	 20.0 	165	;
    102	 29.2 	165	;
    103	 51.6 	165	;
    104	 55.8 	165	;
    108	 37.5 	165	;
    109	 70.1 	165	;
    110	 68.8 	165	;
    113	 13.1 	165	;
];

% bus	p_max	base_kv
mpc.solar = [
    28	 5.8 	165	;
    30	 3.4 	165	;
    31	 2.8 	165	;
    33	 5.1 	165	;
    34	 7.0 	165	;
    35	 9.6 	165	;
    36	 8.7 	165	;
    37	 12.8 	165	;
    39	 11.6 	165	;
    40	 2.2 	165	;
    43	 2.2 	165	;
    44	 2.9 	165	;
    45	 7.4 	165	;
    46	 4.4 	165	;
    49	 7.7 	165	;
    50	 9.0 	165	;
    51	 7.2 	165	;
    52	 14.6 	165	;
    53	 11.8 	165	;
    54	 4.7 	165	;
    55	 5.2 	165	;
    58	 2.1 	165	;
    59	 1.7 	165	;
    60	 0.3 	165	;
    61	 4.4 	165	;
    62	 6.0 	165	;
    63	 7.6 	165	;
    66	 4.2 	165	;
    68	 0.5 	165	;
    70	 12.7 	165	;
    71	 0.0 	165	;
    73	 4.3 	165	;
    74	 4.7 	165	;
    75	 3.7 	165	;
    76	 8.6 	165	;
    77	 6.2 	165	;
    78	 7.7 	165	;
    80	 8.7 	165	;
    81	 4.8 	165	;
    82	 3.9 	165	;
    83	 4.4 	165	;
    84	 6.8 	165	;
    86	 0.3 	165	;
    88	 1.8 	165	;
    89	 3.8 	165	;
    91	 5.1 	165	;
    92	 3.6 	165	;
    93	 0.3 	165	;
    94	 18.4 	165	;
    96	 1.0 	165	;
    97	 4.5 	165	;
    98	 6.5 	165	;
    99	 10.8 	165	;
    101	 7.3 	165	;
    102	 5.6 	165	;
    103	 6.3 	165	;
    104	 4.8 	165	;
    108	 3.1 	165	;
    109	 6.8 	165	;
    110	 4.1 	165	;
    112	 0.5 	165	;
    113	 2.2 	165	;
];

%% load data
% bus	p_max	tan_phi	base_kv
mpc.load = [
    28	 39.7 	0.1032	165	;
    30	 52.3 	0.0671	165	;
    31	 39.7 	-0.0324	165	;
    33	 52.4 	0.1004	165	;
    34	 63.4 	-0.2343	165	;
    35	 84.8 	0.1034	165	;
    36	 27.3 	-0.5536	165	;
    37	 53.5 	-0.4004	165	;
    39	 83.7 	-0.0489	165	;
    40	 28.2 	-0.4481	165	;
    43	 34.0 	0.0962	165	;
    44	 31.0 	-0.1019	165	;
    45	 81.8 	0.2546	165	;
    46	 21.9 	0.2086	165	;
    49	 106.9 	0.0055	165	;
    50	 50.9 	-0.0391	165	;
    51	 103.5 	0.0768	165	;
    52	 137.7 	0.1988	165	;
    53	 116.0 	0.0111	165	;
    54	 26.1 	-0.3722	165	;
    55	 54.5 	0.1180	165	;
    58	 64.7 	0.1700	165	;
    59	 13.8 	-0.1864	165	;
    60	 30.6 	0.1374	165	;
    61	 42.1 	0.1778	165	;
    62	 77.1 	0.2276	165	;
    63	 67.0 	0.0524	165	;
    66	 39.2 	-0.2328	165	;
    68	 4.0 	-0.8824	165	;
    70	 83.5 	0.0266	165	;
    73	 26.0 	0.0360	165	;
    74	 45.6 	-0.0795	165	;
    75	 61.4 	0.1067	165	;
    76	 61.8 	-0.1951	165	;
    77	 52.1 	0.1034	165	;
    78	 67.1 	-0.1481	165	;
    79	 71.9 	0.0472	165	;
    80	 76.7 	0.1189	165	;
    81	 65.3 	0.0591	165	;
    82	 34.9 	-0.3054	165	;
    83	 38.5 	-0.3769	165	;
    84	 45.5 	-0.1054	165	;
    86	 31.2 	0.0075	165	;
    87	 65.7 	0.3132	165	;
    88	 13.1 	-0.1518	165	;
    89	 33.1 	-0.1519	165	;
    90	 18.4 	0.2675	165	;
    91	 83.4 	0.0940	165	;
    92	 55.1 	-0.3142	165	;
    93	 4.0 	-0.3824	165	;
    94	 125.3 	-0.0336	165	;
    95	 27.3 	0.2790	165	;
    96	 17.9 	0.1765	165	;
    97	 41.6 	0.1742	165	;
    98	 50.4 	-0.2019	165	;
    99	 69.1 	-0.0914	165	;
    101	 56.1 	0.0438	165	;
    102	 53.6 	-0.0197	165	;
    103	 41.4 	0.0876	165	;
    104	 33.6 	-0.2997	165	;
    108	 18.1 	-0.3742	165	;
    109	 49.5 	0.1229	165	;
    110	 29.9 	-0.5820	165	;
    112	 41.8 	0.1877	165	;
    113	 29.6 	-0.2055	165	;
    133	 1530.0 	0.1724	400	;   
];

%% branch data
%	fbus	tbus	r	x	b	rateA	rateB	rateC	ratio	angle	status	angmin	angmax
mpc.branch = [
    1	7	0.000019	0.000119	0.006210	1530	1680	1990	1	0	1	-360	360	;
    2	22	0.000000	0.000005	0.000000	1210	1242	1586	1	0	1	-360	360	;
    3	9	0.000000	0.001006	0.000000	831	915	1080	1	0	1	-360	360	;
    4	18	0.000000	0.000106	0.000000	1520	1680	1980	1	0	1	-360	360	;
    5	18	0.000531	0.008750	0.349000	1660	1830	2160	1	0	1	-360	360	;
    5	20	0.000694	0.011200	1.100000	1490	1640	1940	1	0	1	-360	360	;
    5	32	0.001100	0.068178	0.000000	200	220	260	1	0	1	-360	360	;
    6	18	0.000531	0.008750	0.349000	2770	3050	3600	1	0	1	-360	360	;
    6	20	0.000694	0.011200	1.680000	1490	1640	1940	1	0	1	-360	360	;
    7	18	0.000406	0.005410	0.187000	1910	2100	2490	1	0	1	-360	360	;
    7	24	0.000309	0.032120	0.000000	450	495	585	1	0	1	-360	360	;
    7	42	0.000700	0.032758	0.000000	400	440	520	1	0	1	-360	360	;
    7	130	0.000217	0.038858	0.000000	400	440	520	1	0	1	-360	360	;
    7	133	0.000463	0.007735	0.304925	5540	6094	7202	1	0	1	-360	360	;
    8	17	0.000262	0.002880	0.136000	956	1050	1240	1	0	1	-360	360	;
    8	20	0.000950	0.012000	0.357000	1110	1220	1440	1	0	1	-360	360	;
    8	21	0.001270	0.015900	0.931000	970	1070	1260	1	0	1	-360	360	;
    8	22	0.000325	0.004080	0.382000	845	930	1100	1	0	1	-360	360	;
    8	44	0.000625	0.032501	0.000000	400	440	520	1	0	1	-360	360	;
    9	10	0.000231	0.002730	0.079800	1690	1860	2200	1	0	1	-360	360	;
    9	13	0.000650	0.007750	0.227000	1690	1860	2200	1	0	1	-360	360	;
    9	14	0.001320	0.013500	0.861000	637	701	829	1	0	1	-360	360	;
    9	45	0.000625	0.032501	0.000000	400	440	520	1	0	1	-360	360	;
    9	45	0.000625	0.032501	0.000000	400	440	520	1	0	1	-360	360	;
    9	131	0.000040	0.000005	0.000000	255	280.5	331.5	1	0	1	-360	360	;
    10	114	0.000352	0.033407	0.000000	455	500.5	591.5	1	0	1	-360	360	;
    11	20	0.001020	0.014000	0.428000	831	915	1080	1	0	1	-360	360	;
    11	62	0.000600	0.032758	0.000000	400	440	520	1	0	1	-360	360	;
    12	14	0.000919	0.013100	0.392000	1910	2100	2490	1	0	1	-360	360	;
    12	18	0.000563	0.009120	0.854000	1500	1650	1950	1	0	1	-360	360	;
    12	65	0.000625	0.033532	0.000000	400	440	520	1	0	1	-360	360	;
    12	65	0.000600	0.032758	0.000000	400	440	520	1	0	1	-360	360	;
    12	133	0.000178	0.001955	0.064040	2980	3278	3874	1	0	1	-360	360	;
    12	133	0.000178	0.001955	0.064040	2980	3278	3874	1	0	1	-360	360	;
    13	14	0.000638	0.005490	0.633000	637	701	829	1	0	1	-360	360	;
    13	67	0.001100	0.068178	0.000000	200	220	260	1	0	1	-360	360	;
    14	15	0.001010	0.014400	0.837000	1500	1650	1950	1	0	1	-360	360	;
    14	18	0.000231	0.002720	0.190000	1500	1650	1950	1	0	1	-360	360	;
    14	19	0.000100	0.001400	0.040400	831	915	1080	1	0	1	-360	360	;
    14	71	0.000625	0.032501	0.000000	400	440	520	1	0	1	-360	360	;
    15	21	0.000406	0.005430	0.188000	1250	1370	1620	1	0	1	-360	360	;
    15	77	0.000600	0.032758	0.000000	400	440	520	1	0	1	-360	360	;
    16	21	0.000181	0.002390	0.082800	831	915	1080	1	0	1	-360	360	;
    16	120	0.000396	0.031209	0.000000	455	500.5	591.5	1	0	1	-360	360	;
    17	22	0.000038	0.000506	0.017500	1660	1830	2160	1	0	1	-360	360	;
    17	85	0.000600	0.032501	0.000000	400	440	520	1	0	1	-360	360	;
    17	115	0.000350	0.026392	0.000000	485	533.5	630.5	1	0	1	-360	360	;
    19	118	0.000350	0.026804	0.000000	485	533.5	630.5	1	0	1	-360	360	;
    20	27	0.000000	0.000550	0.000000	1274	1401	1658	1	0	1	-360	360	;
    20	105	0.000625	0.033532	0.000000	400	440	520	1	0	1	-360	360	;
    20	106	0.000294	0.052658	0.000000	600	660	780	1	0	1	-360	360	;
    21	26	0.000309	0.032120	0.000000	450	495	585	1	0	1	-360	360	;
    21	26	0.000323	0.032120	0.000000	450	495	585	1	0	1	-360	360	;
    21	107	0.000625	0.032501	0.000000	400	440	520	1	0	1	-360	360	;
    22	108	0.000372	0.032501	0.000000	400	440	520	1	0	1	-360	360	;
    23	26	0.003880	0.029500	2.080000	430	473	559	1	0	1	-360	360	;
    24	25	0.004070	0.026200	1.860000	410	451	533	1	0	1	-360	360	;
    27	106	0.000000	0.000566	0.000000	526	578	684	1	0	1	-360	360	;
    28	29	0.000048	0.006600	0.000000	350	385	455	1	0	1	-360	360	;
    28	87	0.004590	0.031700	0.074500	220	242	286	1	0	1	-360	360	;
    28	99	0.007420	0.053100	0.027700	283	311	368	1	0	1	-360	360	;
    29	101	0.005580	0.035600	0.712000	214	236	279	1	0	1	-360	360	;
    30	44	0.000698	0.005910	0.211000	266	292	346	1	0	1	-360	360	;
    30	60	0.000147	0.001100	0.044200	266	292	346	1	0	1	-360	360	;
    30	112	0.000992	0.008670	0.343000	314	346	409	1	0	1	-360	360	;
    31	35	0.004040	0.027200	0.011100	332	365	431	1	0	1	-360	360	;
    31	55	0.002790	0.055100	0.549000	266	292	346	1	0	1	-360	360	;
    31	76	0.006350	0.036300	0.017800	280	308	364	1	0	1	-360	360	;
    32	53	0.002500	0.021400	0.862000	323	355	420	1	0	1	-360	360	;
    32	103	0.000514	0.004110	0.122000	269	296	349	1	0	1	-360	360	;
    33	65	0.002460	0.021000	0.846000	323	355	420	1	0	1	-360	360	;
    33	75	0.013600	0.078700	0.097600	206	226	267	1	0	1	-360	360	;
    33	89	0.007090	0.042200	0.025000	429	472	557	1	0	1	-360	360	;
    34	84	0.003710	0.018300	0.424000	51.4	56.6	66.9	1	0	1	-360	360	;
    34	85	0.013500	0.044000	0.395000	209	229	271	1	0	1	-360	360	;
    35	71	0.000992	0.008480	0.343000	323	355	420	1	0	1	-360	360	;
    36	83	0.003670	0.023400	0.142000	257	283	334	1	0	1	-360	360	;
    36	95	0.002570	0.016200	0.509000	257	283	334	1	0	1	-360	360	;
    36	97	0.005250	0.033500	1.050000	257	283	334	1	0	1	-360	360	;
    37	38	0.000000	0.000100	0.000000	2860	3140	3720	1	0	1	-360	360	;
    37	62	0.004480	0.028500	0.890000	177	195	230	1	0	1	-360	360	;
    37	74	0.002610	0.024400	0.645000	289	318	375	1	0	1	-360	360	;
    37	90	0.002350	0.014900	0.467000	257	283	334	1	0	1	-360	360	;
    39	53	0.004960	0.043500	0.514000	266	292	346	1	0	1	-360	360	;
    39	102	0.001730	0.016000	0.451000	266	292	346	1	0	1	-360	360	;
    40	92	0.006610	0.035600	0.019400	240	264	312	1	0	1	-360	360	;
    40	108	0.009660	0.052700	0.028000	240	264	312	1	0	1	-360	360	;
    41	55	0.001650	0.010600	0.331000	266	292	346	1	0	1	-360	360	;
    41	75	0.004260	0.022400	0.012800	280	308	364	1	0	1	-360	360	;
    41	130	0.000206	0.000005	0.000000	400	440	520	1	0	1	-360	360	;
    42	57	0.016400	0.041400	1.140000	223	245	290	1	0	1	-360	360	;
    43	75	0.001320	0.004300	0.002340	209	229	271	1	0	1	-360	360	;
    44	82	0.003860	0.032100	0.021400	343	377	446	1	0	1	-360	360	;
    44	104	0.005950	0.036400	0.059600	214	236	279	1	0	1	-360	360	;
    45	49	0.001980	0.010200	0.138000	214	236	279	1	0	1	-360	360	;
    45	86	0.001210	0.008080	0.004670	332	365	431	1	0	1	-360	360	;
    45	99	0.005400	0.046700	0.058600	220	242	286	1	0	1	-360	360	;
    46	59	0.005950	0.020300	0.040400	274	302	357	1	0	1	-360	360	;
    46	69	0.012500	0.041400	0.022000	209	229	271	1	0	1	-360	360	;
    46	82	0.023600	0.077500	0.074200	123	135	160	1	0	1	-360	360	;
    47	48	0.000000	0.000100	0.000000	2860	3140	3720	1	0	1	-360	360	;
    47	68	0.002460	0.015700	0.489000	237	261	308	1	0	1	-360	360	;
    47	83	0.001650	0.011300	0.334000	251	277	327	1	0	1	-360	360	;
    49	50	0.003230	0.019000	0.628000	217	239	282	1	0	1	-360	360	;
    49	86	0.001360	0.002530	0.135000	214	236	279	1	0	1	-360	360	;
    49	87	0.002170	0.012500	0.178000	214	236	279	1	0	1	-360	360	;
    49	127	0.005778	0.331111	0.000000	45	49.5	58.5	1	0	1	-360	360	;
    50	67	0.001030	0.002720	0.168000	206	226	267	1	0	1	-360	360	;
    50	91	0.003380	0.058100	0.667000	214	236	279	1	0	1	-360	360	;
    51	58	0.000367	0.003200	0.129000	323	355	420	1	0	1	-360	360	;
    51	72	0.000551	0.004590	0.186000	323	355	420	1	0	1	-360	360	;
    51	80	0.000551	0.004660	0.188000	323	355	420	1	0	1	-360	360	;
    52	70	0.003640	0.027700	0.096000	251	277	327	1	0	1	-360	360	;
    52	77	0.004550	0.037000	0.036100	560	616	728	1	0	1	-360	360	;
    53	93	0.010400	0.035100	0.016700	206	226	267	1	0	1	-360	360	;
    53	97	0.019700	0.067000	0.033500	206	226	267	1	0	1	-360	360	;
    54	64	0.003270	0.027400	0.018000	394	434	513	1	0	1	-360	360	;
    54	107	0.003560	0.027900	0.119000	226	248	294	1	0	1	-360	360	;
    56	63	0.008630	0.023300	0.281000	186	204	241	1	0	1	-360	360	;
    58	77	0.000918	0.007750	0.313000	323	355	420	1	0	1	-360	360	;
    59	84	0.002830	0.015100	0.341000	214	236	279	1	0	1	-360	360	;
    59	85	0.002280	0.012200	0.006870	240	264	312	1	0	1	-360	360	;
    59	96	0.000992	0.004550	0.111000	154	170	201	1	0	1	-360	360	;
    60	82	0.005180	0.036600	0.245000	209	229	271	1	0	1	-360	360	;
    61	77	0.001140	0.011500	0.011800	394	434	513	1	0	1	-360	360	;
    61	107	0.004150	0.034600	0.022800	394	434	513	1	0	1	-360	360	;
    62	88	0.003310	0.021100	0.658000	266	292	346	1	0	1	-360	360	;
    62	97	0.003420	0.012300	0.061900	266	292	346	1	0	1	-360	360	;
    62	109	0.006430	0.022000	0.043700	412	453	535	1	0	1	-360	360	;
    63	75	0.008010	0.029000	0.159000	206	226	267	1	0	1	-360	360	;
    63	93	0.017300	0.058700	0.067000	206	226	267	1	0	1	-360	360	;
    63	98	0.006390	0.021800	0.043400	383	421	498	1	0	1	-360	360	;
    64	66	0.001730	0.005550	0.246000	206	226	267	1	0	1	-360	360	;
    64	104	0.000992	0.003230	-0.234000	214	236	279	1	0	1	-360	360	;
    65	76	0.004480	0.040600	0.022900	394	434	513	1	0	1	-360	360	;
    65	94	0.001360	0.008710	0.272000	163	179	212	1	0	1	-360	360	;
    68	69	0.000184	0.000661	0.000350	209	229	271	1	0	1	-360	360	;
    68	110	0.005770	0.018600	0.052800	123	135	160	1	0	1	-360	360	;
    70	71	0.002420	0.016500	0.152000	251	277	327	1	0	1	-360	360	;
    70	103	0.007930	0.042500	0.023400	280	308	364	1	0	1	-360	360	;
    71	91	0.001510	0.013300	0.224000	323	355	420	1	0	1	-360	360	;
    71	100	0.001100	0.010000	0.005650	394	434	513	1	0	1	-360	360	;
    72	77	0.002420	0.020200	0.013500	394	434	513	1	0	1	-360	360	;
    72	107	0.002280	0.019000	0.012700	394	434	513	1	0	1	-360	360	;
    73	98	0.001910	0.016500	0.663000	323	355	420	1	0	1	-360	360	;
    73	109	0.002060	0.014000	0.407000	257	283	334	1	0	1	-360	360	;
    74	105	0.001760	0.014800	0.029400	263	289	342	1	0	1	-360	360	;
    75	89	0.006540	0.036500	0.073700	209	229	271	1	0	1	-360	360	;
    75	111	0.000294	0.004080	0.044700	409	450	531	1	0	1	-360	360	;
    78	107	0.003230	0.019600	0.616000	169	185	219	1	0	1	-360	360	;
    78	113	0.005330	0.012500	0.449000	126	138	163	1	0	1	-360	360	;
    79	107	0.001030	0.008410	0.022500	789	868	1030	1	0	1	-360	360	;
    79	119	0.000396	0.030110	0.000000	455	500.5	591.5	1	0	1	-360	360	;
    80	107	0.001320	0.011200	0.007040	394	434	513	1	0	1	-360	360	;
    81	107	0.002940	0.024900	0.015900	343	377	446	1	0	1	-360	360	;
    82	105	0.008190	0.027900	0.058100	512	563	665	1	0	1	-360	360	;
    82	110	0.011900	0.039200	0.020800	209	229	271	1	0	1	-360	360	;
    85	92	0.022800	0.076800	0.110000	186	204	241	1	0	1	-360	360	;
    85	112	0.000404	0.003890	0.051000	297	327	386	1	0	1	-360	360	;
    85	116	0.000600	0.034857	0.000000	350	385	455	1	0	1	-360	360	;
    88	97	0.003310	0.011200	0.442000	206	226	267	1	0	1	-360	360	;
    90	95	0.001910	0.011700	0.375000	257	283	334	1	0	1	-360	360	;
    91	100	0.002060	0.013000	0.069800	166	182	215	1	0	1	-360	360	;
    94	101	0.006720	0.036800	0.045900	246	270	320	1	0	1	-360	360	;
    94	117	0.000213	0.021236	0.000000	890	979	1157	1	0	1	-360	360	;
    94	126	0.003037	0.118627	0.000000	102	112.2	132.6	1	0	1	-360	360	;
    94	134	0.007050	0.034000	0.084800	160	176	208	1	0	1	-360	360	;
    98	109	0.004810	0.016400	0.032600	412	453	535	1	0	1	-360	360	;
    102	105	0.001070	0.011100	0.314000	292	321	379	1	0	1	-360	360	;
    102	107	0.007970	0.047100	0.099800	429	472	557	1	0	1	-360	360	;
    106	124	0.001667	0.032668	0.000000	180	198	234	1	0	1	-360	360	;
    107	113	0.008040	0.028800	0.463000	126	138	163	1	0	1	-360	360	;
    108	112	0.000624	0.003780	0.113000	166	182	215	1	0	1	-360	360	;
    108	132	0.000000	0.158531	0.000000	125	137.5	162.5	1	0	1	-360	360	;
    111	121	0.000306	0.025792	0.000000	457.5	503.25	594.75	1	0	1	-360	360	;
    122	131	0.000840	0.051431	0.000000	255	280.5	331.5	1	0	1	-360	360	;
    123	130	0.000228	0.096935	0.000000	400	440	520	1	0	1	-360	360	;
    125	132	0.004102	0.000005	0.000000	125	137.5	162.5	1	0	1	-360	360	;
    128	131	0.010356	0.298373	0.000000	255	280.5	331.5	1	0	1	-360	360	;
    129	132	0.041658	0.491469	0.000000	125	137.5	162.5	1	0	1	-360	360	;
    133	134	0.000000	0.025000	0.000000	160	176	208	1	0	1	-360	360	;
];

%%-----  OPF Data  -----%%
%% generator cost data
%	1	startup	shutdown	n	x1	y1	...	xn	yn
%	2	startup	shutdown	n	c(n-1)	...	c0

mpc.gencost = [
2	0	0	2	53.297	0	;
2	0	0	2	50.758	0	;
2	0	0	2	52.848	0	;
2	0	0	2	52.755	0	;
2	0	0	2	53.473	0	;
2	0	0	2	50.537	0	;
2	0	0	2	57.301	0	;
2	0	0	2	53.153	0	;
2	0	0	2	48.882	0	;
2	0	0	2	50.208	0	;
2	0	0	2	56.447	0	;
2	0	0	2	50.693	0	;
2	0	0	2	57.878	0	;
2	0	0	2	121.452	0	;
2	0	0	2	50.229	0	;
2	0	0	2	112.055	0	;
2	0	0	2	56.940	0	;
2	0	0	2	56.457	0	;
2	0	0	2	50.510	0	;
2	0	0	2	53.273	0	;
2	0	0	2	52.480	0	;
2	0	0	2	50.678	0	;
2	0	0	2	54.135	0	;
2	0	0	2	56.218	0	;
2	0	0	2	52.442	0	;
2	0	0	2	55.410	0	;
2	0	0	2	51.097	0	;
2	0	0	2	109.312	0	;
2	0	0	2	51.013	0	;
2	0	0	2	54.507	0	;
2	0	0	2	8.677	0	;
2	0	0	2	54.738	0	;
2	0	0	2	50.054	0	;
2	0	0	2	56.226	0	;
2	0	0	2	59.295	0	;
2	0	0	2	117.445	0	;
2	0	0	2	59.568	0	;
2	0	0	2	53.749	0	;
2	0	0	2	51.139	0	;
2	0	0	2	50.899	0	;
2	0	0	2	50.890	0	;
2	0	0	2	116.888	0	;
2	0	0	2	51.719	0	;
2	0	0	2	52.313	0	;
2	0	0	2	58.138	0	;
2	0	0	2	57.580	0	;
2	0	0	2	53.112	0	;
2	0	0	2	56.530	0	;
2	0	0	2	55.233	0	;
2	0	0	2	57.722	0	;
2	0	0	2	54.516	0	;
2	0	0	2	53.134	0	;
2	0	0	2	52.984	0	;
2	0	0	2	54.991	0	;
2	0	0	2	57.616	0	;
2	0	0	2	55.424	0	;
2	0	0	2	54.378	0	;
2	0	0	2	54.823	0	;
2	0	0	2	57.921	0	;
2	0	0	2	7.774	0	;
2	0	0	2	50.773	0	;
2	0	0	2	50.464	0	;
2	0	0	2	59.610	0	;
2	0	0	2	56.527	0	;
2	0	0	2	58.390	0	;
2	0	0	2	111.259	0	;
2	0	0	2	53.277	0	;
2	0	0	2	31.350	0	;
2	0	0	2	28.632	0	;
2	0	0	2	42.610	0	;
2	0	0	2	57.297	0	;
2	0	0	2	29.361	0	;
2	0	0	2	28.863	0	;
2	0	0	2	0.000	0	;
2	0	0	2	0.000	0	;
2	0	0	2	0.000	0	;
2	0	0	2	33.009	0	;
2	0	0	2	41.219	0	;
];

